Circuit: * C:\Users\Rémi\Documents\GitHub\2021_2022_PEREUR_CUCULIERE\ELECTRONIQUE_ANALOGIQUE_SIMLUATIONS\Schéma_solution_Ampli_Transimpédance.asc

WARNING: Node N003 is floating.

Direct Newton iteration for .op point succeeded.
Fatal Error: Analysis Failed: Matrix is singular
