Circuit: * C:\Users\Rémi\Documents\GitHub\2021_2022_PEREUR_CUCULIERE\ELECTRONIQUE_ANALOGIQUE_SIMLUATIONS\Schéma_solution_Ampli_Transimpédance.asc

WARNING: Node N003 is floating.

Direct Newton iteration for .op point succeeded.
.step r2=100
.step r2=200
.step r2=300
.step r2=400
.step r2=500
.step r2=600
.step r2=700
.step r2=800
.step r2=900
.step r2=1000
.step r2=1100
.step r2=1200
.step r2=1300
.step r2=1400
.step r2=1500
.step r2=1600
.step r2=1700
.step r2=1800
.step r2=1900
.step r2=2000
.step r2=2100
.step r2=2200
.step r2=2300
.step r2=2400
.step r2=2500

Date: Tue Apr 12 18:14:29 2022
Total elapsed time: 4.064 seconds.

tnom = 27
temp = 27
method = modified trap
totiter = 20732
traniter = 20710
tranpoints = 10356
accept = 6672
rejected = 3684
matrix size = 17
fillins = 12
solver = Normal
Matrix Compiler1: 1.09 KB object code size  0.3/0.1/[0.1]
Matrix Compiler2: 1.54 KB object code size  0.1/0.2/[0.1]

